
#======================================================================
            
# CRYSTAL DATA

#----------------------------------------------------------------------

data_magnetic_model_1
            
_chemical_name_common                  'caso01'

            _cell_length_a 			9.9384
_cell_length_b 			9.9384
_cell_length_c 			13.1627
_cell_angle_alpha 			90.0
_cell_angle_beta 			90.0
_cell_angle_gamma 			120.0

loop_
 _space_group_symop_operation_xyz			
'x, y, z'

# Atom positions 

loop_
   _atom_site_label
_atom_site_occupancy
_atom_site_fract_x
_atom_site_fract_y
_atom_site_fract_z
_atom_site_adp_type
_atom_site_B_iso_or_equiv
_atom_site_type_symbol
Mn1	 1.	0.0	0.0	0.32	Biso 	1 	Mn 
Mn2	 1.	1.0	0.0	0.32	Biso 	1 	Mn 
   
# Bonds  
loop_
_geom_bond_atom_site_label_1
_geom_bond_atom_site_label_2
_geom_bond_distance
_geom_bond_label
Mn1	Mn2	9.0	J1
   
