
#======================================================================
            
# CRYSTAL DATA

#----------------------------------------------------------------------

data_magnetic_model_1
            
_chemical_name_common                  default
_cell_length_a 			7.294
_cell_length_b 			12.005000000000017
_cell_length_c 			9.214000000000015
_cell_angle_alpha 			90.0
_cell_angle_beta 			90.0
_cell_angle_gamma 			90.0

loop_
 _space_group_symop_operation_xyz			
'x, y, z'

# Atom positions 

loop_
   _atom_site_label
_atom_site_occupancy
_atom_site_fract_x
_atom_site_fract_y
_atom_site_fract_z
_atom_site_adp_type
_atom_site_B_iso_or_equiv
_atom_site_type_symbol
Cu1	 1.	0.23921	0.12468000000000001	0.77846	Biso 	1 	Cu 
Cu2	 1.	0.26429	-0.13184	0.79	Biso 	1 	Cu 
Cu3	 1.	0.0	0.0	0.5	Biso 	1 	Cu 

   
# Bonds  
loop_
_geom_bond_atom_site_label_1
_geom_bond_atom_site_label_2
_geom_bond_distance
_geom_bond_label
_geom_bond_site_symmetry_2
Cu1	Cu2	2.9386	J0	.
Cu2	Cu3	2.9386	J0	.



