
#======================================================================
            
# CRYSTAL DATA

#----------------------------------------------------------------------

data_magnetic_model_1
            
_chemical_name_common                  'BIMNO'

            _cell_length_a 			10.0
_cell_length_b 			10.0
_cell_length_c 			28.0
_cell_angle_alpha 			90.0
_cell_angle_beta 			90.0
_cell_angle_gamma 			120.0

loop_
 _space_group_symop_operation_xyz			
'x, y, z'

# Atom positions 

loop_
   _atom_site_label
_atom_site_occupancy
_atom_site_fract_x
_atom_site_fract_y
_atom_site_fract_z
_atom_site_adp_type
_atom_site_B_iso_or_equiv
_atom_site_type_symbol
Mn1	 1.	-0.0	-0.0	0.32	Biso 	1 	Mn 
Mn2	 1.	0.5	-0.0	0.32	Biso 	1 	Mn 
Mn3	 1.	-0.0	0.5	0.32	Biso 	1 	Mn 
Mn4	 1.	0.5	0.5	0.32	Biso 	1 	Mn 
Mn5	 1.	0.33333	0.16667	0.32	Biso 	1 	Mn 
Mn6	 1.	0.83333	0.16667	0.32	Biso 	1 	Mn 
Mn7	 1.	0.33333	0.66667	0.32	Biso 	1 	Mn 
Mn8	 1.	0.83333	0.66667	0.32	Biso 	1 	Mn 
Mn9	 1.	-0.0	-0.0	0.68	Biso 	1 	Mn 
Mn10	 1.	0.5	-0.0	0.68	Biso 	1 	Mn 
Mn11	 1.	-0.0	0.5	0.68	Biso 	1 	Mn 
Mn12	 1.	0.5	0.5	0.68	Biso 	1 	Mn 
Mn13	 1.	0.33333	0.16667	0.68	Biso 	1 	Mn 
Mn14	 1.	0.83333	0.16667	0.68	Biso 	1 	Mn 
Mn15	 1.	0.33333	0.66667	0.68	Biso 	1 	Mn 
Mn16	 1.	0.83333	0.66667	0.68	Biso 	1 	Mn 
   
